scripts/PVSystems_50.dss
New PVSystem.PV_1 bus1=t_bus1003_l.1.2.3.0 phases=3 kV=0.208 kVA=5.000 Pmpp=5.000 model=1 conn=wye pf=1 irradiance=1 temperature=25 daily=PVShape Tdaily=TempShape
New PVSystem.PV_2 bus1=t_bus1003_l.1.2.3.0 phases=3 kV=0.208 kVA=5.000 Pmpp=5.000 model=1 conn=wye pf=1 irradiance=1 temperature=25 daily=PVShape Tdaily=TempShape
New PVSystem.PV_3 bus1=t_bus1003_l.1.2.3.0 phases=3 kV=0.208 kVA=3.412 Pmpp=3.412 model=1 conn=wye pf=1 irradiance=1 temperature=25 daily=PVShape Tdaily=TempShape
New PVSystem.PV_4 bus1=t_bus1004_l.1.2.3.0 phases=3 kV=0.208 kVA=5.000 Pmpp=5.000 model=1 conn=wye pf=1 irradiance=1 temperature=25 daily=PVShape Tdaily=TempShape
New PVSystem.PV_5 bus1=t_bus1004_l.1.2.3.0 phases=3 kV=0.208 kVA=2.915 Pmpp=2.915 model=1 conn=wye pf=1 irradiance=1 temperature=25 daily=PVShape Tdaily=TempShape
New PVSystem.PV_6 bus1=t_bus1005_l.1.2.3.0 phases=3 kV=0.208 kVA=5.000 Pmpp=5.000 model=1 conn=wye pf=1 irradiance=1 temperature=25 daily=PVShape Tdaily=TempShape
New PVSystem.PV_7 bus1=t_bus1005_l.1.2.3.0 phases=3 kV=0.208 kVA=5.000 Pmpp=5.000 model=1 conn=wye pf=1 irradiance=1 temperature=25 daily=PVShape Tdaily=TempShape
New PVSystem.PV_8 bus1=t_bus1006_l.1.2 phases=2 kV=0.208 kVA=5.000 Pmpp=5.000 model=1 conn=wye pf=1 irradiance=1 temperature=25 daily=PVShape Tdaily=TempShape
New PVSystem.PV_9 bus1=t_bus1006_l.1.2 phases=2 kV=0.208 kVA=2.219 Pmpp=2.219 model=1 conn=wye pf=1 irradiance=1 temperature=25 daily=PVShape Tdaily=TempShape
New PVSystem.PV_10 bus1=t_bus1007_l.1.2 phases=2 kV=0.208 kVA=2.763 Pmpp=2.763 model=1 conn=wye pf=1 irradiance=1 temperature=25 daily=PVShape Tdaily=TempShape
New PVSystem.PV_11 bus1=t_bus1008_l.1.2.3.0 phases=3 kV=0.208 kVA=5.000 Pmpp=5.000 model=1 conn=wye pf=1 irradiance=1 temperature=25 daily=PVShape Tdaily=TempShape
New PVSystem.PV_12 bus1=t_bus1008_l.1.2.3.0 phases=3 kV=0.208 kVA=2.139 Pmpp=2.139 model=1 conn=wye pf=1 irradiance=1 temperature=25 daily=PVShape Tdaily=TempShape
New PVSystem.PV_13 bus1=t_bus1009_l.1.2.3.0 phases=3 kV=0.208 kVA=5.000 Pmpp=5.000 model=1 conn=wye pf=1 irradiance=1 temperature=25 daily=PVShape Tdaily=TempShape
New PVSystem.PV_14 bus1=t_bus1009_l.1.2.3.0 phases=3 kV=0.208 kVA=4.848 Pmpp=4.848 model=1 conn=wye pf=1 irradiance=1 temperature=25 daily=PVShape Tdaily=TempShape
New PVSystem.PV_15 bus1=t_bus1010_l.1.2.3.0 phases=3 kV=0.208 kVA=4.297 Pmpp=4.297 model=1 conn=wye pf=1 irradiance=1 temperature=25 daily=PVShape Tdaily=TempShape
New PVSystem.PV_16 bus1=t_bus1011_l.1.2 phases=2 kV=0.208 kVA=3.139 Pmpp=3.139 model=1 conn=wye pf=1 irradiance=1 temperature=25 daily=PVShape Tdaily=TempShape
New PVSystem.PV_17 bus1=t_bus1012_l.1.2 phases=2 kV=0.208 kVA=3.481 Pmpp=3.481 model=1 conn=wye pf=1 irradiance=1 temperature=25 daily=PVShape Tdaily=TempShape
New PVSystem.PV_18 bus1=t_bus1013_l.1.2.3.0 phases=3 kV=0.208 kVA=3.736 Pmpp=3.736 model=1 conn=wye pf=1 irradiance=1 temperature=25 daily=PVShape Tdaily=TempShape
New PVSystem.PV_19 bus1=t_bus1014_l.1.2 phases=2 kV=0.208 kVA=1.035 Pmpp=1.035 model=1 conn=wye pf=1 irradiance=1 temperature=25 daily=PVShape Tdaily=TempShape
New PVSystem.PV_20 bus1=t_bus1015_l.1.2 phases=2 kV=0.208 kVA=1.431 Pmpp=1.431 model=1 conn=wye pf=1 irradiance=1 temperature=25 daily=PVShape Tdaily=TempShape
New PVSystem.PV_21 bus1=t_bus1016_l.1.2 phases=2 kV=0.208 kVA=3.481 Pmpp=3.481 model=1 conn=wye pf=1 irradiance=1 temperature=25 daily=PVShape Tdaily=TempShape
New PVSystem.PV_22 bus1=t_bus1017_l.1.2 phases=2 kV=0.208 kVA=3.275 Pmpp=3.275 model=1 conn=wye pf=1 irradiance=1 temperature=25 daily=PVShape Tdaily=TempShape
New PVSystem.PV_23 bus1=t_bus2002_l.1.2.3.0 phases=3 kV=0.208 kVA=5.000 Pmpp=5.000 model=1 conn=wye pf=1 irradiance=1 temperature=25 daily=PVShape Tdaily=TempShape
New PVSystem.PV_24 bus1=t_bus2002_l.1.2.3.0 phases=3 kV=0.208 kVA=5.000 Pmpp=5.000 model=1 conn=wye pf=1 irradiance=1 temperature=25 daily=PVShape Tdaily=TempShape
New PVSystem.PV_25 bus1=t_bus2002_l.1.2.3.0 phases=3 kV=0.208 kVA=5.000 Pmpp=5.000 model=1 conn=wye pf=1 irradiance=1 temperature=25 daily=PVShape Tdaily=TempShape
New PVSystem.PV_26 bus1=t_bus2002_l.1.2.3.0 phases=3 kV=0.208 kVA=5.000 Pmpp=5.000 model=1 conn=wye pf=1 irradiance=1 temperature=25 daily=PVShape Tdaily=TempShape
New PVSystem.PV_27 bus1=t_bus2002_l.1.2.3.0 phases=3 kV=0.208 kVA=5.000 Pmpp=5.000 model=1 conn=wye pf=1 irradiance=1 temperature=25 daily=PVShape Tdaily=TempShape
New PVSystem.PV_28 bus1=t_bus2002_l.1.2.3.0 phases=3 kV=0.208 kVA=5.000 Pmpp=5.000 model=1 conn=wye pf=1 irradiance=1 temperature=25 daily=PVShape Tdaily=TempShape
New PVSystem.PV_29 bus1=t_bus2002_l.1.2.3.0 phases=3 kV=0.208 kVA=5.000 Pmpp=5.000 model=1 conn=wye pf=1 irradiance=1 temperature=25 daily=PVShape Tdaily=TempShape
New PVSystem.PV_30 bus1=t_bus2002_l.1.2.3.0 phases=3 kV=0.208 kVA=5.000 Pmpp=5.000 model=1 conn=wye pf=1 irradiance=1 temperature=25 daily=PVShape Tdaily=TempShape
New PVSystem.PV_31 bus1=t_bus2002_l.1.2.3.0 phases=3 kV=0.208 kVA=5.000 Pmpp=5.000 model=1 conn=wye pf=1 irradiance=1 temperature=25 daily=PVShape Tdaily=TempShape
New PVSystem.PV_32 bus1=t_bus2002_l.1.2.3.0 phases=3 kV=0.208 kVA=1.275 Pmpp=1.275 model=1 conn=wye pf=1 irradiance=1 temperature=25 daily=PVShape Tdaily=TempShape
New PVSystem.PV_33 bus1=t_bus2003_l.1.2.3.0 phases=3 kV=0.208 kVA=5.000 Pmpp=5.000 model=1 conn=wye pf=1 irradiance=1 temperature=25 daily=PVShape Tdaily=TempShape
New PVSystem.PV_34 bus1=t_bus2003_l.1.2.3.0 phases=3 kV=0.208 kVA=1.812 Pmpp=1.812 model=1 conn=wye pf=1 irradiance=1 temperature=25 daily=PVShape Tdaily=TempShape
New PVSystem.PV_35 bus1=t_bus2005_l.1.2.3.0 phases=3 kV=0.208 kVA=3.271 Pmpp=3.271 model=1 conn=wye pf=1 irradiance=1 temperature=25 daily=PVShape Tdaily=TempShape
New PVSystem.PV_36 bus1=t_bus2008_l.1.2 phases=2 kV=0.208 kVA=2.917 Pmpp=2.917 model=1 conn=wye pf=1 irradiance=1 temperature=25 daily=PVShape Tdaily=TempShape
New PVSystem.PV_37 bus1=t_bus2009_l.1.2 phases=2 kV=0.208 kVA=1.607 Pmpp=1.607 model=1 conn=wye pf=1 irradiance=1 temperature=25 daily=PVShape Tdaily=TempShape
New PVSystem.PV_38 bus1=t_bus2010_l.1.2.3.0 phases=3 kV=0.208 kVA=2.807 Pmpp=2.807 model=1 conn=wye pf=1 irradiance=1 temperature=25 daily=PVShape Tdaily=TempShape
New PVSystem.PV_39 bus1=t_bus2011_l.1.2.3.0 phases=3 kV=0.208 kVA=4.621 Pmpp=4.621 model=1 conn=wye pf=1 irradiance=1 temperature=25 daily=PVShape Tdaily=TempShape
New PVSystem.PV_40 bus1=t_bus2014_l.1.2 phases=2 kV=0.208 kVA=3.305 Pmpp=3.305 model=1 conn=wye pf=1 irradiance=1 temperature=25 daily=PVShape Tdaily=TempShape
New PVSystem.PV_41 bus1=t_bus2015_l.1.2 phases=2 kV=0.208 kVA=1.752 Pmpp=1.752 model=1 conn=wye pf=1 irradiance=1 temperature=25 daily=PVShape Tdaily=TempShape
New PVSystem.PV_42 bus1=t_bus2016_l.1.2 phases=2 kV=0.208 kVA=2.412 Pmpp=2.412 model=1 conn=wye pf=1 irradiance=1 temperature=25 daily=PVShape Tdaily=TempShape
New PVSystem.PV_43 bus1=t_bus2017_l.1.2 phases=2 kV=0.208 kVA=2.934 Pmpp=2.934 model=1 conn=wye pf=1 irradiance=1 temperature=25 daily=PVShape Tdaily=TempShape
New PVSystem.PV_44 bus1=t_bus2018_l.1.2 phases=2 kV=0.208 kVA=2.690 Pmpp=2.690 model=1 conn=wye pf=1 irradiance=1 temperature=25 daily=PVShape Tdaily=TempShape
New PVSystem.PV_45 bus1=t_bus2020_l.1.2 phases=2 kV=0.208 kVA=2.421 Pmpp=2.421 model=1 conn=wye pf=1 irradiance=1 temperature=25 daily=PVShape Tdaily=TempShape
New PVSystem.PV_46 bus1=t_bus2022_l.1.2 phases=2 kV=0.208 kVA=2.651 Pmpp=2.651 model=1 conn=wye pf=1 irradiance=1 temperature=25 daily=PVShape Tdaily=TempShape
New PVSystem.PV_47 bus1=t_bus2023_l.1.2 phases=2 kV=0.208 kVA=0.713 Pmpp=0.713 model=1 conn=wye pf=1 irradiance=1 temperature=25 daily=PVShape Tdaily=TempShape
New PVSystem.PV_48 bus1=t_bus2024_l.1.2 phases=2 kV=0.208 kVA=2.861 Pmpp=2.861 model=1 conn=wye pf=1 irradiance=1 temperature=25 daily=PVShape Tdaily=TempShape
New PVSystem.PV_49 bus1=t_bus2025_l.1.2 phases=2 kV=0.208 kVA=2.655 Pmpp=2.655 model=1 conn=wye pf=1 irradiance=1 temperature=25 daily=PVShape Tdaily=TempShape
New PVSystem.PV_50 bus1=t_bus2028_l.1.2 phases=2 kV=0.208 kVA=1.686 Pmpp=1.686 model=1 conn=wye pf=1 irradiance=1 temperature=25 daily=PVShape Tdaily=TempShape
New PVSystem.PV_51 bus1=t_bus2029_l.1.2.3.0 phases=3 kV=0.208 kVA=5.000 Pmpp=5.000 model=1 conn=wye pf=1 irradiance=1 temperature=25 daily=PVShape Tdaily=TempShape
New PVSystem.PV_52 bus1=t_bus2029_l.1.2.3.0 phases=3 kV=0.208 kVA=2.951 Pmpp=2.951 model=1 conn=wye pf=1 irradiance=1 temperature=25 daily=PVShape Tdaily=TempShape
New PVSystem.PV_53 bus1=t_bus2030_l.1.2.3.0 phases=3 kV=0.208 kVA=5.000 Pmpp=5.000 model=1 conn=wye pf=1 irradiance=1 temperature=25 daily=PVShape Tdaily=TempShape
New PVSystem.PV_54 bus1=t_bus2030_l.1.2.3.0 phases=3 kV=0.208 kVA=5.000 Pmpp=5.000 model=1 conn=wye pf=1 irradiance=1 temperature=25 daily=PVShape Tdaily=TempShape
New PVSystem.PV_55 bus1=t_bus2030_l.1.2.3.0 phases=3 kV=0.208 kVA=0.575 Pmpp=0.575 model=1 conn=wye pf=1 irradiance=1 temperature=25 daily=PVShape Tdaily=TempShape
New PVSystem.PV_56 bus1=t_bus2031_l.1.2 phases=2 kV=0.208 kVA=3.058 Pmpp=3.058 model=1 conn=wye pf=1 irradiance=1 temperature=25 daily=PVShape Tdaily=TempShape
New PVSystem.PV_57 bus1=t_bus2032_l.1.2.3.0 phases=3 kV=0.208 kVA=1.484 Pmpp=1.484 model=1 conn=wye pf=1 irradiance=1 temperature=25 daily=PVShape Tdaily=TempShape
New PVSystem.PV_58 bus1=t_bus2034_l.1.2.3.0 phases=3 kV=0.208 kVA=4.802 Pmpp=4.802 model=1 conn=wye pf=1 irradiance=1 temperature=25 daily=PVShape Tdaily=TempShape
New PVSystem.PV_59 bus1=t_bus2035_l.1.2.3.0 phases=3 kV=0.208 kVA=5.000 Pmpp=5.000 model=1 conn=wye pf=1 irradiance=1 temperature=25 daily=PVShape Tdaily=TempShape
New PVSystem.PV_60 bus1=t_bus2035_l.1.2.3.0 phases=3 kV=0.208 kVA=1.408 Pmpp=1.408 model=1 conn=wye pf=1 irradiance=1 temperature=25 daily=PVShape Tdaily=TempShape
New PVSystem.PV_61 bus1=t_bus2037_l.1.2.3.0 phases=3 kV=0.208 kVA=3.346 Pmpp=3.346 model=1 conn=wye pf=1 irradiance=1 temperature=25 daily=PVShape Tdaily=TempShape
New PVSystem.PV_62 bus1=t_bus2040_l.1.2.3.0 phases=3 kV=0.208 kVA=5.000 Pmpp=5.000 model=1 conn=wye pf=1 irradiance=1 temperature=25 daily=PVShape Tdaily=TempShape
New PVSystem.PV_63 bus1=t_bus2040_l.1.2.3.0 phases=3 kV=0.208 kVA=5.000 Pmpp=5.000 model=1 conn=wye pf=1 irradiance=1 temperature=25 daily=PVShape Tdaily=TempShape
New PVSystem.PV_64 bus1=t_bus2040_l.1.2.3.0 phases=3 kV=0.208 kVA=5.000 Pmpp=5.000 model=1 conn=wye pf=1 irradiance=1 temperature=25 daily=PVShape Tdaily=TempShape
New PVSystem.PV_65 bus1=t_bus2040_l.1.2.3.0 phases=3 kV=0.208 kVA=5.000 Pmpp=5.000 model=1 conn=wye pf=1 irradiance=1 temperature=25 daily=PVShape Tdaily=TempShape
New PVSystem.PV_66 bus1=t_bus2040_l.1.2.3.0 phases=3 kV=0.208 kVA=5.000 Pmpp=5.000 model=1 conn=wye pf=1 irradiance=1 temperature=25 daily=PVShape Tdaily=TempShape
New PVSystem.PV_67 bus1=t_bus2040_l.1.2.3.0 phases=3 kV=0.208 kVA=5.000 Pmpp=5.000 model=1 conn=wye pf=1 irradiance=1 temperature=25 daily=PVShape Tdaily=TempShape
New PVSystem.PV_68 bus1=t_bus2040_l.1.2.3.0 phases=3 kV=0.208 kVA=5.000 Pmpp=5.000 model=1 conn=wye pf=1 irradiance=1 temperature=25 daily=PVShape Tdaily=TempShape
New PVSystem.PV_69 bus1=t_bus2040_l.1.2.3.0 phases=3 kV=0.208 kVA=3.930 Pmpp=3.930 model=1 conn=wye pf=1 irradiance=1 temperature=25 daily=PVShape Tdaily=TempShape
New PVSystem.PV_70 bus1=t_bus2041_l.1.2.3.0 phases=3 kV=0.208 kVA=3.807 Pmpp=3.807 model=1 conn=wye pf=1 irradiance=1 temperature=25 daily=PVShape Tdaily=TempShape
New PVSystem.PV_71 bus1=t_bus2042_l.1.2.3.0 phases=3 kV=0.208 kVA=5.000 Pmpp=5.000 model=1 conn=wye pf=1 irradiance=1 temperature=25 daily=PVShape Tdaily=TempShape
New PVSystem.PV_72 bus1=t_bus2042_l.1.2.3.0 phases=3 kV=0.208 kVA=2.581 Pmpp=2.581 model=1 conn=wye pf=1 irradiance=1 temperature=25 daily=PVShape Tdaily=TempShape
New PVSystem.PV_73 bus1=t_bus2043_l.1.2.3.0 phases=3 kV=0.208 kVA=5.000 Pmpp=5.000 model=1 conn=wye pf=1 irradiance=1 temperature=25 daily=PVShape Tdaily=TempShape
New PVSystem.PV_74 bus1=t_bus2043_l.1.2.3.0 phases=3 kV=0.208 kVA=5.000 Pmpp=5.000 model=1 conn=wye pf=1 irradiance=1 temperature=25 daily=PVShape Tdaily=TempShape
New PVSystem.PV_75 bus1=t_bus2045_l.1.2 phases=2 kV=0.208 kVA=1.375 Pmpp=1.375 model=1 conn=wye pf=1 irradiance=1 temperature=25 daily=PVShape Tdaily=TempShape
New PVSystem.PV_76 bus1=t_bus2046_l.1.2 phases=2 kV=0.208 kVA=5.000 Pmpp=5.000 model=1 conn=wye pf=1 irradiance=1 temperature=25 daily=PVShape Tdaily=TempShape
New PVSystem.PV_77 bus1=t_bus2047_l.1.2 phases=2 kV=0.208 kVA=5.000 Pmpp=5.000 model=1 conn=wye pf=1 irradiance=1 temperature=25 daily=PVShape Tdaily=TempShape
New PVSystem.PV_78 bus1=t_bus2048_l.1.2 phases=2 kV=0.208 kVA=5.000 Pmpp=5.000 model=1 conn=wye pf=1 irradiance=1 temperature=25 daily=PVShape Tdaily=TempShape
New PVSystem.PV_79 bus1=t_bus2049_l.1.2 phases=2 kV=0.208 kVA=3.582 Pmpp=3.582 model=1 conn=wye pf=1 irradiance=1 temperature=25 daily=PVShape Tdaily=TempShape
New PVSystem.PV_80 bus1=t_bus2050_l.1.2 phases=2 kV=0.208 kVA=3.295 Pmpp=3.295 model=1 conn=wye pf=1 irradiance=1 temperature=25 daily=PVShape Tdaily=TempShape
New PVSystem.PV_81 bus1=t_bus2051_l.1.2 phases=2 kV=0.208 kVA=4.405 Pmpp=4.405 model=1 conn=wye pf=1 irradiance=1 temperature=25 daily=PVShape Tdaily=TempShape
New PVSystem.PV_82 bus1=t_bus2052_l.1.2.3.0 phases=3 kV=0.208 kVA=5.000 Pmpp=5.000 model=1 conn=wye pf=1 irradiance=1 temperature=25 daily=PVShape Tdaily=TempShape
New PVSystem.PV_83 bus1=t_bus2052_l.1.2.3.0 phases=3 kV=0.208 kVA=5.000 Pmpp=5.000 model=1 conn=wye pf=1 irradiance=1 temperature=25 daily=PVShape Tdaily=TempShape
New PVSystem.PV_84 bus1=t_bus2052_l.1.2.3.0 phases=3 kV=0.208 kVA=5.000 Pmpp=5.000 model=1 conn=wye pf=1 irradiance=1 temperature=25 daily=PVShape Tdaily=TempShape
New PVSystem.PV_85 bus1=t_bus2052_l.1.2.3.0 phases=3 kV=0.208 kVA=5.000 Pmpp=5.000 model=1 conn=wye pf=1 irradiance=1 temperature=25 daily=PVShape Tdaily=TempShape
New PVSystem.PV_86 bus1=t_bus2052_l.1.2.3.0 phases=3 kV=0.208 kVA=5.000 Pmpp=5.000 model=1 conn=wye pf=1 irradiance=1 temperature=25 daily=PVShape Tdaily=TempShape
New PVSystem.PV_87 bus1=t_bus2052_l.1.2.3.0 phases=3 kV=0.208 kVA=5.000 Pmpp=5.000 model=1 conn=wye pf=1 irradiance=1 temperature=25 daily=PVShape Tdaily=TempShape
New PVSystem.PV_88 bus1=t_bus2052_l.1.2.3.0 phases=3 kV=0.208 kVA=5.000 Pmpp=5.000 model=1 conn=wye pf=1 irradiance=1 temperature=25 daily=PVShape Tdaily=TempShape
New PVSystem.PV_89 bus1=t_bus2052_l.1.2.3.0 phases=3 kV=0.208 kVA=0.882 Pmpp=0.882 model=1 conn=wye pf=1 irradiance=1 temperature=25 daily=PVShape Tdaily=TempShape
New PVSystem.PV_90 bus1=t_bus2053_l.1.2.3.0 phases=3 kV=0.208 kVA=5.000 Pmpp=5.000 model=1 conn=wye pf=1 irradiance=1 temperature=25 daily=PVShape Tdaily=TempShape
New PVSystem.PV_91 bus1=t_bus2053_l.1.2.3.0 phases=3 kV=0.208 kVA=5.000 Pmpp=5.000 model=1 conn=wye pf=1 irradiance=1 temperature=25 daily=PVShape Tdaily=TempShape
New PVSystem.PV_92 bus1=t_bus2053_l.1.2.3.0 phases=3 kV=0.208 kVA=5.000 Pmpp=5.000 model=1 conn=wye pf=1 irradiance=1 temperature=25 daily=PVShape Tdaily=TempShape
New PVSystem.PV_93 bus1=t_bus2053_l.1.2.3.0 phases=3 kV=0.208 kVA=5.000 Pmpp=5.000 model=1 conn=wye pf=1 irradiance=1 temperature=25 daily=PVShape Tdaily=TempShape
New PVSystem.PV_94 bus1=t_bus2053_l.1.2.3.0 phases=3 kV=0.208 kVA=5.000 Pmpp=5.000 model=1 conn=wye pf=1 irradiance=1 temperature=25 daily=PVShape Tdaily=TempShape
New PVSystem.PV_95 bus1=t_bus2053_l.1.2.3.0 phases=3 kV=0.208 kVA=0.964 Pmpp=0.964 model=1 conn=wye pf=1 irradiance=1 temperature=25 daily=PVShape Tdaily=TempShape
New PVSystem.PV_96 bus1=t_bus2054_l.1.2 phases=2 kV=0.208 kVA=4.085 Pmpp=4.085 model=1 conn=wye pf=1 irradiance=1 temperature=25 daily=PVShape Tdaily=TempShape
New PVSystem.PV_97 bus1=t_bus2055_l.1.2 phases=2 kV=0.208 kVA=5.000 Pmpp=5.000 model=1 conn=wye pf=1 irradiance=1 temperature=25 daily=PVShape Tdaily=TempShape
New PVSystem.PV_98 bus1=t_bus2055_l.1.2 phases=2 kV=0.208 kVA=1.161 Pmpp=1.161 model=1 conn=wye pf=1 irradiance=1 temperature=25 daily=PVShape Tdaily=TempShape
New PVSystem.PV_99 bus1=t_bus2056_l.1.2 phases=2 kV=0.208 kVA=2.805 Pmpp=2.805 model=1 conn=wye pf=1 irradiance=1 temperature=25 daily=PVShape Tdaily=TempShape
New PVSystem.PV_100 bus1=t_bus2058_l.1.2.3.0 phases=3 kV=0.208 kVA=5.000 Pmpp=5.000 model=1 conn=wye pf=1 irradiance=1 temperature=25 daily=PVShape Tdaily=TempShape
New PVSystem.PV_101 bus1=t_bus2058_l.1.2.3.0 phases=3 kV=0.208 kVA=5.000 Pmpp=5.000 model=1 conn=wye pf=1 irradiance=1 temperature=25 daily=PVShape Tdaily=TempShape
New PVSystem.PV_102 bus1=t_bus2058_l.1.2.3.0 phases=3 kV=0.208 kVA=5.000 Pmpp=5.000 model=1 conn=wye pf=1 irradiance=1 temperature=25 daily=PVShape Tdaily=TempShape
New PVSystem.PV_103 bus1=t_bus2058_l.1.2.3.0 phases=3 kV=0.208 kVA=5.000 Pmpp=5.000 model=1 conn=wye pf=1 irradiance=1 temperature=25 daily=PVShape Tdaily=TempShape
New PVSystem.PV_104 bus1=t_bus2058_l.1.2.3.0 phases=3 kV=0.208 kVA=5.000 Pmpp=5.000 model=1 conn=wye pf=1 irradiance=1 temperature=25 daily=PVShape Tdaily=TempShape
New PVSystem.PV_105 bus1=t_bus2058_l.1.2.3.0 phases=3 kV=0.208 kVA=5.000 Pmpp=5.000 model=1 conn=wye pf=1 irradiance=1 temperature=25 daily=PVShape Tdaily=TempShape
New PVSystem.PV_106 bus1=t_bus2058_l.1.2.3.0 phases=3 kV=0.208 kVA=4.982 Pmpp=4.982 model=1 conn=wye pf=1 irradiance=1 temperature=25 daily=PVShape Tdaily=TempShape
New PVSystem.PV_107 bus1=t_bus2059_l.1.2 phases=2 kV=0.208 kVA=1.797 Pmpp=1.797 model=1 conn=wye pf=1 irradiance=1 temperature=25 daily=PVShape Tdaily=TempShape
New PVSystem.PV_108 bus1=t_bus2060_l.1.2 phases=2 kV=0.208 kVA=1.916 Pmpp=1.916 model=1 conn=wye pf=1 irradiance=1 temperature=25 daily=PVShape Tdaily=TempShape
New PVSystem.PV_109 bus1=t_bus3002_l.1.2.3.0 phases=3 kV=0.208 kVA=5.000 Pmpp=5.000 model=1 conn=wye pf=1 irradiance=1 temperature=25 daily=PVShape Tdaily=TempShape
New PVSystem.PV_110 bus1=t_bus3002_l.1.2.3.0 phases=3 kV=0.208 kVA=1.900 Pmpp=1.900 model=1 conn=wye pf=1 irradiance=1 temperature=25 daily=PVShape Tdaily=TempShape
New PVSystem.PV_111 bus1=t_bus3004_l.1.2.3.0 phases=3 kV=0.208 kVA=2.505 Pmpp=2.505 model=1 conn=wye pf=1 irradiance=1 temperature=25 daily=PVShape Tdaily=TempShape
New PVSystem.PV_112 bus1=t_bus3006_l.1.2.3.0 phases=3 kV=0.208 kVA=5.000 Pmpp=5.000 model=1 conn=wye pf=1 irradiance=1 temperature=25 daily=PVShape Tdaily=TempShape
New PVSystem.PV_113 bus1=t_bus3007_l.1.2.3.0 phases=3 kV=0.208 kVA=5.000 Pmpp=5.000 model=1 conn=wye pf=1 irradiance=1 temperature=25 daily=PVShape Tdaily=TempShape
New PVSystem.PV_114 bus1=t_bus3007_l.1.2.3.0 phases=3 kV=0.208 kVA=3.290 Pmpp=3.290 model=1 conn=wye pf=1 irradiance=1 temperature=25 daily=PVShape Tdaily=TempShape
New PVSystem.PV_115 bus1=t_bus3009_l.1.2 phases=2 kV=0.208 kVA=5.000 Pmpp=5.000 model=1 conn=wye pf=1 irradiance=1 temperature=25 daily=PVShape Tdaily=TempShape
New PVSystem.PV_116 bus1=t_bus3010_l.1.2 phases=2 kV=0.208 kVA=4.016 Pmpp=4.016 model=1 conn=wye pf=1 irradiance=1 temperature=25 daily=PVShape Tdaily=TempShape
New PVSystem.PV_117 bus1=t_bus3011_l.1.2 phases=2 kV=0.208 kVA=5.000 Pmpp=5.000 model=1 conn=wye pf=1 irradiance=1 temperature=25 daily=PVShape Tdaily=TempShape
New PVSystem.PV_118 bus1=t_bus3012_l.1.2 phases=2 kV=0.208 kVA=5.000 Pmpp=5.000 model=1 conn=wye pf=1 irradiance=1 temperature=25 daily=PVShape Tdaily=TempShape
New PVSystem.PV_119 bus1=t_bus3012_l.1.2 phases=2 kV=0.208 kVA=0.725 Pmpp=0.725 model=1 conn=wye pf=1 irradiance=1 temperature=25 daily=PVShape Tdaily=TempShape
New PVSystem.PV_120 bus1=t_bus3013_l.1.2 phases=2 kV=0.208 kVA=3.183 Pmpp=3.183 model=1 conn=wye pf=1 irradiance=1 temperature=25 daily=PVShape Tdaily=TempShape
New PVSystem.PV_121 bus1=t_bus3014_l.1.2 phases=2 kV=0.208 kVA=4.602 Pmpp=4.602 model=1 conn=wye pf=1 irradiance=1 temperature=25 daily=PVShape Tdaily=TempShape
New PVSystem.PV_122 bus1=t_bus3016_l.1.2 phases=2 kV=0.208 kVA=4.772 Pmpp=4.772 model=1 conn=wye pf=1 irradiance=1 temperature=25 daily=PVShape Tdaily=TempShape
New PVSystem.PV_123 bus1=t_bus3017_l.1.2 phases=2 kV=0.208 kVA=5.000 Pmpp=5.000 model=1 conn=wye pf=1 irradiance=1 temperature=25 daily=PVShape Tdaily=TempShape
New PVSystem.PV_124 bus1=t_bus3017_l.1.2 phases=2 kV=0.208 kVA=2.661 Pmpp=2.661 model=1 conn=wye pf=1 irradiance=1 temperature=25 daily=PVShape Tdaily=TempShape
New PVSystem.PV_125 bus1=t_bus3018_l.1.2 phases=2 kV=0.208 kVA=5.000 Pmpp=5.000 model=1 conn=wye pf=1 irradiance=1 temperature=25 daily=PVShape Tdaily=TempShape
New PVSystem.PV_126 bus1=t_bus3019_l.1.2 phases=2 kV=0.208 kVA=4.968 Pmpp=4.968 model=1 conn=wye pf=1 irradiance=1 temperature=25 daily=PVShape Tdaily=TempShape
New PVSystem.PV_127 bus1=t_bus3020_l.1.2 phases=2 kV=0.208 kVA=5.000 Pmpp=5.000 model=1 conn=wye pf=1 irradiance=1 temperature=25 daily=PVShape Tdaily=TempShape
New PVSystem.PV_128 bus1=t_bus3020_l.1.2 phases=2 kV=0.208 kVA=2.119 Pmpp=2.119 model=1 conn=wye pf=1 irradiance=1 temperature=25 daily=PVShape Tdaily=TempShape
New PVSystem.PV_129 bus1=t_bus3021_l.1.2 phases=2 kV=0.208 kVA=4.730 Pmpp=4.730 model=1 conn=wye pf=1 irradiance=1 temperature=25 daily=PVShape Tdaily=TempShape
New PVSystem.PV_130 bus1=t_bus3023_l.1.2 phases=2 kV=0.208 kVA=5.000 Pmpp=5.000 model=1 conn=wye pf=1 irradiance=1 temperature=25 daily=PVShape Tdaily=TempShape
New PVSystem.PV_131 bus1=t_bus3023_l.1.2 phases=2 kV=0.208 kVA=1.288 Pmpp=1.288 model=1 conn=wye pf=1 irradiance=1 temperature=25 daily=PVShape Tdaily=TempShape
New PVSystem.PV_132 bus1=t_bus3024_l.1.2 phases=2 kV=0.208 kVA=5.000 Pmpp=5.000 model=1 conn=wye pf=1 irradiance=1 temperature=25 daily=PVShape Tdaily=TempShape
New PVSystem.PV_133 bus1=t_bus3024_l.1.2 phases=2 kV=0.208 kVA=0.932 Pmpp=0.932 model=1 conn=wye pf=1 irradiance=1 temperature=25 daily=PVShape Tdaily=TempShape
New PVSystem.PV_134 bus1=t_bus3025_l.1.2 phases=2 kV=0.208 kVA=5.000 Pmpp=5.000 model=1 conn=wye pf=1 irradiance=1 temperature=25 daily=PVShape Tdaily=TempShape
New PVSystem.PV_135 bus1=t_bus3025_l.1.2 phases=2 kV=0.208 kVA=1.022 Pmpp=1.022 model=1 conn=wye pf=1 irradiance=1 temperature=25 daily=PVShape Tdaily=TempShape
New PVSystem.PV_136 bus1=t_bus3026_l.1.2 phases=2 kV=0.208 kVA=5.000 Pmpp=5.000 model=1 conn=wye pf=1 irradiance=1 temperature=25 daily=PVShape Tdaily=TempShape
New PVSystem.PV_137 bus1=t_bus3027_l.1.2 phases=2 kV=0.208 kVA=5.000 Pmpp=5.000 model=1 conn=wye pf=1 irradiance=1 temperature=25 daily=PVShape Tdaily=TempShape
New PVSystem.PV_138 bus1=t_bus3027_l.1.2 phases=2 kV=0.208 kVA=1.448 Pmpp=1.448 model=1 conn=wye pf=1 irradiance=1 temperature=25 daily=PVShape Tdaily=TempShape
New PVSystem.PV_139 bus1=t_bus3028_l.1.2 phases=2 kV=0.208 kVA=5.000 Pmpp=5.000 model=1 conn=wye pf=1 irradiance=1 temperature=25 daily=PVShape Tdaily=TempShape
New PVSystem.PV_140 bus1=t_bus3028_l.1.2 phases=2 kV=0.208 kVA=2.980 Pmpp=2.980 model=1 conn=wye pf=1 irradiance=1 temperature=25 daily=PVShape Tdaily=TempShape
New PVSystem.PV_141 bus1=t_bus3029_l.1.2 phases=2 kV=0.208 kVA=3.735 Pmpp=3.735 model=1 conn=wye pf=1 irradiance=1 temperature=25 daily=PVShape Tdaily=TempShape
New PVSystem.PV_142 bus1=t_bus3031_l.1.2.3.0 phases=3 kV=0.208 kVA=5.000 Pmpp=5.000 model=1 conn=wye pf=1 irradiance=1 temperature=25 daily=PVShape Tdaily=TempShape
New PVSystem.PV_143 bus1=t_bus3032_l.1.2.3.0 phases=3 kV=0.208 kVA=5.000 Pmpp=5.000 model=1 conn=wye pf=1 irradiance=1 temperature=25 daily=PVShape Tdaily=TempShape
New PVSystem.PV_144 bus1=t_bus3033_l.1.2.3.0 phases=3 kV=0.208 kVA=5.000 Pmpp=5.000 model=1 conn=wye pf=1 irradiance=1 temperature=25 daily=PVShape Tdaily=TempShape
New PVSystem.PV_145 bus1=t_bus3033_l.1.2.3.0 phases=3 kV=0.208 kVA=1.172 Pmpp=1.172 model=1 conn=wye pf=1 irradiance=1 temperature=25 daily=PVShape Tdaily=TempShape
New PVSystem.PV_146 bus1=t_bus3034_l.1.2.3.0 phases=3 kV=0.208 kVA=5.000 Pmpp=5.000 model=1 conn=wye pf=1 irradiance=1 temperature=25 daily=PVShape Tdaily=TempShape
New PVSystem.PV_147 bus1=t_bus3035_l.1.2.3.0 phases=3 kV=0.208 kVA=5.000 Pmpp=5.000 model=1 conn=wye pf=1 irradiance=1 temperature=25 daily=PVShape Tdaily=TempShape
New PVSystem.PV_148 bus1=t_bus3035_l.1.2.3.0 phases=3 kV=0.208 kVA=2.175 Pmpp=2.175 model=1 conn=wye pf=1 irradiance=1 temperature=25 daily=PVShape Tdaily=TempShape
New PVSystem.PV_149 bus1=t_bus3036_l.1.2.3.0 phases=3 kV=0.208 kVA=4.331 Pmpp=4.331 model=1 conn=wye pf=1 irradiance=1 temperature=25 daily=PVShape Tdaily=TempShape
New PVSystem.PV_150 bus1=t_bus3037_l.1.2.3.0 phases=3 kV=0.208 kVA=4.906 Pmpp=4.906 model=1 conn=wye pf=1 irradiance=1 temperature=25 daily=PVShape Tdaily=TempShape
New PVSystem.PV_151 bus1=t_bus3038_l.1.2.3.0 phases=3 kV=0.208 kVA=4.704 Pmpp=4.704 model=1 conn=wye pf=1 irradiance=1 temperature=25 daily=PVShape Tdaily=TempShape
New PVSystem.PV_152 bus1=t_bus3039_l.1.2.3.0 phases=3 kV=0.208 kVA=4.984 Pmpp=4.984 model=1 conn=wye pf=1 irradiance=1 temperature=25 daily=PVShape Tdaily=TempShape
New PVSystem.PV_153 bus1=t_bus3041_l.1.2 phases=2 kV=0.208 kVA=5.000 Pmpp=5.000 model=1 conn=wye pf=1 irradiance=1 temperature=25 daily=PVShape Tdaily=TempShape
New PVSystem.PV_154 bus1=t_bus3041_l.1.2 phases=2 kV=0.208 kVA=1.070 Pmpp=1.070 model=1 conn=wye pf=1 irradiance=1 temperature=25 daily=PVShape Tdaily=TempShape
New PVSystem.PV_155 bus1=t_bus3042_l.1.2 phases=2 kV=0.208 kVA=4.361 Pmpp=4.361 model=1 conn=wye pf=1 irradiance=1 temperature=25 daily=PVShape Tdaily=TempShape
New PVSystem.PV_156 bus1=t_bus3043_l.1.2 phases=2 kV=0.208 kVA=3.682 Pmpp=3.682 model=1 conn=wye pf=1 irradiance=1 temperature=25 daily=PVShape Tdaily=TempShape
New PVSystem.PV_157 bus1=t_bus3044_l.1.2 phases=2 kV=0.208 kVA=4.942 Pmpp=4.942 model=1 conn=wye pf=1 irradiance=1 temperature=25 daily=PVShape Tdaily=TempShape
New PVSystem.PV_158 bus1=t_bus3045_l.1.2 phases=2 kV=0.208 kVA=4.578 Pmpp=4.578 model=1 conn=wye pf=1 irradiance=1 temperature=25 daily=PVShape Tdaily=TempShape
New PVSystem.PV_159 bus1=t_bus3047_l.1.2.3.0 phases=3 kV=0.208 kVA=5.000 Pmpp=5.000 model=1 conn=wye pf=1 irradiance=1 temperature=25 daily=PVShape Tdaily=TempShape
New PVSystem.PV_160 bus1=t_bus3047_l.1.2.3.0 phases=3 kV=0.208 kVA=1.724 Pmpp=1.724 model=1 conn=wye pf=1 irradiance=1 temperature=25 daily=PVShape Tdaily=TempShape
New PVSystem.PV_161 bus1=t_bus3048_l.1.2.3.0 phases=3 kV=0.208 kVA=2.206 Pmpp=2.206 model=1 conn=wye pf=1 irradiance=1 temperature=25 daily=PVShape Tdaily=TempShape
New PVSystem.PV_162 bus1=t_bus3049_l.1.2.3.0 phases=3 kV=0.208 kVA=3.976 Pmpp=3.976 model=1 conn=wye pf=1 irradiance=1 temperature=25 daily=PVShape Tdaily=TempShape
New PVSystem.PV_163 bus1=t_bus3050_l.1.2.3.0 phases=3 kV=0.208 kVA=3.221 Pmpp=3.221 model=1 conn=wye pf=1 irradiance=1 temperature=25 daily=PVShape Tdaily=TempShape
New PVSystem.PV_164 bus1=t_bus3051_l.1.2.3.0 phases=3 kV=0.208 kVA=2.144 Pmpp=2.144 model=1 conn=wye pf=1 irradiance=1 temperature=25 daily=PVShape Tdaily=TempShape
New PVSystem.PV_165 bus1=t_bus3052_l.1.2.3.0 phases=3 kV=0.208 kVA=4.663 Pmpp=4.663 model=1 conn=wye pf=1 irradiance=1 temperature=25 daily=PVShape Tdaily=TempShape
New PVSystem.PV_166 bus1=t_bus3054_l.1.2.3.0 phases=3 kV=0.208 kVA=1.740 Pmpp=1.740 model=1 conn=wye pf=1 irradiance=1 temperature=25 daily=PVShape Tdaily=TempShape
New PVSystem.PV_167 bus1=t_bus3056_l.1.2 phases=2 kV=0.208 kVA=3.783 Pmpp=3.783 model=1 conn=wye pf=1 irradiance=1 temperature=25 daily=PVShape Tdaily=TempShape
New PVSystem.PV_168 bus1=t_bus3057_l.1.2 phases=2 kV=0.208 kVA=3.318 Pmpp=3.318 model=1 conn=wye pf=1 irradiance=1 temperature=25 daily=PVShape Tdaily=TempShape
New PVSystem.PV_169 bus1=t_bus3058_l.1.2 phases=2 kV=0.208 kVA=3.088 Pmpp=3.088 model=1 conn=wye pf=1 irradiance=1 temperature=25 daily=PVShape Tdaily=TempShape
New PVSystem.PV_170 bus1=t_bus3059_l.1.2 phases=2 kV=0.208 kVA=4.067 Pmpp=4.067 model=1 conn=wye pf=1 irradiance=1 temperature=25 daily=PVShape Tdaily=TempShape
New PVSystem.PV_171 bus1=t_bus3060_l.1.2 phases=2 kV=0.208 kVA=3.753 Pmpp=3.753 model=1 conn=wye pf=1 irradiance=1 temperature=25 daily=PVShape Tdaily=TempShape
New PVSystem.PV_172 bus1=t_bus3061_l.1.2 phases=2 kV=0.208 kVA=2.131 Pmpp=2.131 model=1 conn=wye pf=1 irradiance=1 temperature=25 daily=PVShape Tdaily=TempShape
New PVSystem.PV_173 bus1=t_bus3062_l.1.2 phases=2 kV=0.208 kVA=3.228 Pmpp=3.228 model=1 conn=wye pf=1 irradiance=1 temperature=25 daily=PVShape Tdaily=TempShape
New PVSystem.PV_174 bus1=t_bus3063_l.1.2 phases=2 kV=0.208 kVA=4.127 Pmpp=4.127 model=1 conn=wye pf=1 irradiance=1 temperature=25 daily=PVShape Tdaily=TempShape
New PVSystem.PV_175 bus1=t_bus3064_l.1.2 phases=2 kV=0.208 kVA=5.000 Pmpp=5.000 model=1 conn=wye pf=1 irradiance=1 temperature=25 daily=PVShape Tdaily=TempShape
New PVSystem.PV_176 bus1=t_bus3064_l.1.2 phases=2 kV=0.208 kVA=0.638 Pmpp=0.638 model=1 conn=wye pf=1 irradiance=1 temperature=25 daily=PVShape Tdaily=TempShape
New PVSystem.PV_177 bus1=t_bus3065_l.1.2 phases=2 kV=0.208 kVA=4.454 Pmpp=4.454 model=1 conn=wye pf=1 irradiance=1 temperature=25 daily=PVShape Tdaily=TempShape
New PVSystem.PV_178 bus1=t_bus3066_l.1.2 phases=2 kV=0.208 kVA=2.333 Pmpp=2.333 model=1 conn=wye pf=1 irradiance=1 temperature=25 daily=PVShape Tdaily=TempShape
New PVSystem.PV_179 bus1=t_bus3067_l.1.2 phases=2 kV=0.208 kVA=5.000 Pmpp=5.000 model=1 conn=wye pf=1 irradiance=1 temperature=25 daily=PVShape Tdaily=TempShape
New PVSystem.PV_180 bus1=t_bus3067_l.1.2 phases=2 kV=0.208 kVA=0.748 Pmpp=0.748 model=1 conn=wye pf=1 irradiance=1 temperature=25 daily=PVShape Tdaily=TempShape
New PVSystem.PV_181 bus1=t_bus3070_l.1.2.3.0 phases=3 kV=0.208 kVA=2.800 Pmpp=2.800 model=1 conn=wye pf=1 irradiance=1 temperature=25 daily=PVShape Tdaily=TempShape
New PVSystem.PV_182 bus1=t_bus3071_l.1.2.3.0 phases=3 kV=0.208 kVA=3.767 Pmpp=3.767 model=1 conn=wye pf=1 irradiance=1 temperature=25 daily=PVShape Tdaily=TempShape
New PVSystem.PV_183 bus1=t_bus3072_l.1.2.3.0 phases=3 kV=0.208 kVA=3.564 Pmpp=3.564 model=1 conn=wye pf=1 irradiance=1 temperature=25 daily=PVShape Tdaily=TempShape
New PVSystem.PV_184 bus1=t_bus3073_l.1.2.3.0 phases=3 kV=0.208 kVA=3.403 Pmpp=3.403 model=1 conn=wye pf=1 irradiance=1 temperature=25 daily=PVShape Tdaily=TempShape
New PVSystem.PV_185 bus1=t_bus3074_l.1.2.3.0 phases=3 kV=0.208 kVA=3.612 Pmpp=3.612 model=1 conn=wye pf=1 irradiance=1 temperature=25 daily=PVShape Tdaily=TempShape
New PVSystem.PV_186 bus1=t_bus3077_l.1.2.3.0 phases=3 kV=0.208 kVA=5.000 Pmpp=5.000 model=1 conn=wye pf=1 irradiance=1 temperature=25 daily=PVShape Tdaily=TempShape
New PVSystem.PV_187 bus1=t_bus3077_l.1.2.3.0 phases=3 kV=0.208 kVA=5.000 Pmpp=5.000 model=1 conn=wye pf=1 irradiance=1 temperature=25 daily=PVShape Tdaily=TempShape
New PVSystem.PV_188 bus1=t_bus3077_l.1.2.3.0 phases=3 kV=0.208 kVA=5.000 Pmpp=5.000 model=1 conn=wye pf=1 irradiance=1 temperature=25 daily=PVShape Tdaily=TempShape
New PVSystem.PV_189 bus1=t_bus3077_l.1.2.3.0 phases=3 kV=0.208 kVA=5.000 Pmpp=5.000 model=1 conn=wye pf=1 irradiance=1 temperature=25 daily=PVShape Tdaily=TempShape
New PVSystem.PV_190 bus1=t_bus3077_l.1.2.3.0 phases=3 kV=0.208 kVA=5.000 Pmpp=5.000 model=1 conn=wye pf=1 irradiance=1 temperature=25 daily=PVShape Tdaily=TempShape
New PVSystem.PV_191 bus1=t_bus3077_l.1.2.3.0 phases=3 kV=0.208 kVA=5.000 Pmpp=5.000 model=1 conn=wye pf=1 irradiance=1 temperature=25 daily=PVShape Tdaily=TempShape
New PVSystem.PV_192 bus1=t_bus3077_l.1.2.3.0 phases=3 kV=0.208 kVA=5.000 Pmpp=5.000 model=1 conn=wye pf=1 irradiance=1 temperature=25 daily=PVShape Tdaily=TempShape
New PVSystem.PV_193 bus1=t_bus3077_l.1.2.3.0 phases=3 kV=0.208 kVA=5.000 Pmpp=5.000 model=1 conn=wye pf=1 irradiance=1 temperature=25 daily=PVShape Tdaily=TempShape
New PVSystem.PV_194 bus1=t_bus3077_l.1.2.3.0 phases=3 kV=0.208 kVA=5.000 Pmpp=5.000 model=1 conn=wye pf=1 irradiance=1 temperature=25 daily=PVShape Tdaily=TempShape
New PVSystem.PV_195 bus1=t_bus3077_l.1.2.3.0 phases=3 kV=0.208 kVA=5.000 Pmpp=5.000 model=1 conn=wye pf=1 irradiance=1 temperature=25 daily=PVShape Tdaily=TempShape
New PVSystem.PV_196 bus1=t_bus3077_l.1.2.3.0 phases=3 kV=0.208 kVA=2.273 Pmpp=2.273 model=1 conn=wye pf=1 irradiance=1 temperature=25 daily=PVShape Tdaily=TempShape
New PVSystem.PV_197 bus1=t_bus3078_l.1.2.3.0 phases=3 kV=0.208 kVA=2.363 Pmpp=2.363 model=1 conn=wye pf=1 irradiance=1 temperature=25 daily=PVShape Tdaily=TempShape
New PVSystem.PV_198 bus1=t_bus3081_l.1.2.3.0 phases=3 kV=0.208 kVA=5.000 Pmpp=5.000 model=1 conn=wye pf=1 irradiance=1 temperature=25 daily=PVShape Tdaily=TempShape
New PVSystem.PV_199 bus1=t_bus3083_l.1.2 phases=2 kV=0.208 kVA=3.693 Pmpp=3.693 model=1 conn=wye pf=1 irradiance=1 temperature=25 daily=PVShape Tdaily=TempShape
New PVSystem.PV_200 bus1=t_bus3084_l.1.2 phases=2 kV=0.208 kVA=3.703 Pmpp=3.703 model=1 conn=wye pf=1 irradiance=1 temperature=25 daily=PVShape Tdaily=TempShape
New PVSystem.PV_201 bus1=t_bus3085_l.1.2 phases=2 kV=0.208 kVA=5.000 Pmpp=5.000 model=1 conn=wye pf=1 irradiance=1 temperature=25 daily=PVShape Tdaily=TempShape
New PVSystem.PV_202 bus1=t_bus3086_l.1.2 phases=2 kV=0.208 kVA=2.456 Pmpp=2.456 model=1 conn=wye pf=1 irradiance=1 temperature=25 daily=PVShape Tdaily=TempShape
New PVSystem.PV_203 bus1=t_bus3087_l.1.2 phases=2 kV=0.208 kVA=4.935 Pmpp=4.935 model=1 conn=wye pf=1 irradiance=1 temperature=25 daily=PVShape Tdaily=TempShape
New PVSystem.PV_204 bus1=t_bus3088_l.1.2 phases=2 kV=0.208 kVA=4.660 Pmpp=4.660 model=1 conn=wye pf=1 irradiance=1 temperature=25 daily=PVShape Tdaily=TempShape
New PVSystem.PV_205 bus1=t_bus3089_l.1.2 phases=2 kV=0.208 kVA=3.996 Pmpp=3.996 model=1 conn=wye pf=1 irradiance=1 temperature=25 daily=PVShape Tdaily=TempShape
New PVSystem.PV_206 bus1=t_bus3090_l.1.2 phases=2 kV=0.208 kVA=4.281 Pmpp=4.281 model=1 conn=wye pf=1 irradiance=1 temperature=25 daily=PVShape Tdaily=TempShape
New PVSystem.PV_207 bus1=t_bus3091_l.1.2 phases=2 kV=0.208 kVA=2.587 Pmpp=2.587 model=1 conn=wye pf=1 irradiance=1 temperature=25 daily=PVShape Tdaily=TempShape
New PVSystem.PV_208 bus1=t_bus3093_l.1.2 phases=2 kV=0.208 kVA=4.003 Pmpp=4.003 model=1 conn=wye pf=1 irradiance=1 temperature=25 daily=PVShape Tdaily=TempShape
New PVSystem.PV_209 bus1=t_bus3094_l.1.2 phases=2 kV=0.208 kVA=3.428 Pmpp=3.428 model=1 conn=wye pf=1 irradiance=1 temperature=25 daily=PVShape Tdaily=TempShape
New PVSystem.PV_210 bus1=t_bus3095_l.1.2 phases=2 kV=0.208 kVA=4.982 Pmpp=4.982 model=1 conn=wye pf=1 irradiance=1 temperature=25 daily=PVShape Tdaily=TempShape
New PVSystem.PV_211 bus1=t_bus3096_l.1.2 phases=2 kV=0.208 kVA=4.767 Pmpp=4.767 model=1 conn=wye pf=1 irradiance=1 temperature=25 daily=PVShape Tdaily=TempShape
New PVSystem.PV_212 bus1=t_bus3097_l.1.2 phases=2 kV=0.208 kVA=5.000 Pmpp=5.000 model=1 conn=wye pf=1 irradiance=1 temperature=25 daily=PVShape Tdaily=TempShape
New PVSystem.PV_213 bus1=t_bus3098_l.1.2 phases=2 kV=0.208 kVA=5.000 Pmpp=5.000 model=1 conn=wye pf=1 irradiance=1 temperature=25 daily=PVShape Tdaily=TempShape
New PVSystem.PV_214 bus1=t_bus3098_l.1.2 phases=2 kV=0.208 kVA=2.482 Pmpp=2.482 model=1 conn=wye pf=1 irradiance=1 temperature=25 daily=PVShape Tdaily=TempShape
New PVSystem.PV_215 bus1=t_bus3099_l.1.2 phases=2 kV=0.208 kVA=4.074 Pmpp=4.074 model=1 conn=wye pf=1 irradiance=1 temperature=25 daily=PVShape Tdaily=TempShape
New PVSystem.PV_216 bus1=t_bus3101_l.1.2 phases=2 kV=0.208 kVA=3.532 Pmpp=3.532 model=1 conn=wye pf=1 irradiance=1 temperature=25 daily=PVShape Tdaily=TempShape
New PVSystem.PV_217 bus1=t_bus3102_l.1.2 phases=2 kV=0.208 kVA=4.098 Pmpp=4.098 model=1 conn=wye pf=1 irradiance=1 temperature=25 daily=PVShape Tdaily=TempShape
New PVSystem.PV_218 bus1=t_bus3103_l.1.2 phases=2 kV=0.208 kVA=5.000 Pmpp=5.000 model=1 conn=wye pf=1 irradiance=1 temperature=25 daily=PVShape Tdaily=TempShape
New PVSystem.PV_219 bus1=t_bus3103_l.1.2 phases=2 kV=0.208 kVA=0.736 Pmpp=0.736 model=1 conn=wye pf=1 irradiance=1 temperature=25 daily=PVShape Tdaily=TempShape
New PVSystem.PV_220 bus1=t_bus3104_l.1.2 phases=2 kV=0.208 kVA=5.000 Pmpp=5.000 model=1 conn=wye pf=1 irradiance=1 temperature=25 daily=PVShape Tdaily=TempShape
New PVSystem.PV_221 bus1=t_bus3104_l.1.2 phases=2 kV=0.208 kVA=5.000 Pmpp=5.000 model=1 conn=wye pf=1 irradiance=1 temperature=25 daily=PVShape Tdaily=TempShape
New PVSystem.PV_222 bus1=t_bus3104_l.1.2 phases=2 kV=0.208 kVA=3.182 Pmpp=3.182 model=1 conn=wye pf=1 irradiance=1 temperature=25 daily=PVShape Tdaily=TempShape
New PVSystem.PV_223 bus1=t_bus3105_l.1.2 phases=2 kV=0.208 kVA=3.347 Pmpp=3.347 model=1 conn=wye pf=1 irradiance=1 temperature=25 daily=PVShape Tdaily=TempShape
New PVSystem.PV_224 bus1=t_bus3106_l.1.2 phases=2 kV=0.208 kVA=5.000 Pmpp=5.000 model=1 conn=wye pf=1 irradiance=1 temperature=25 daily=PVShape Tdaily=TempShape
New PVSystem.PV_225 bus1=t_bus3106_l.1.2 phases=2 kV=0.208 kVA=5.000 Pmpp=5.000 model=1 conn=wye pf=1 irradiance=1 temperature=25 daily=PVShape Tdaily=TempShape
New PVSystem.PV_226 bus1=t_bus3106_l.1.2 phases=2 kV=0.208 kVA=2.221 Pmpp=2.221 model=1 conn=wye pf=1 irradiance=1 temperature=25 daily=PVShape Tdaily=TempShape
New PVSystem.PV_227 bus1=t_bus3108_l.1.2 phases=2 kV=0.208 kVA=2.759 Pmpp=2.759 model=1 conn=wye pf=1 irradiance=1 temperature=25 daily=PVShape Tdaily=TempShape
New PVSystem.PV_228 bus1=t_bus3109_l.1.2 phases=2 kV=0.208 kVA=5.000 Pmpp=5.000 model=1 conn=wye pf=1 irradiance=1 temperature=25 daily=PVShape Tdaily=TempShape
New PVSystem.PV_229 bus1=t_bus3110_l.1.2 phases=2 kV=0.208 kVA=5.000 Pmpp=5.000 model=1 conn=wye pf=1 irradiance=1 temperature=25 daily=PVShape Tdaily=TempShape
New PVSystem.PV_230 bus1=t_bus3110_l.1.2 phases=2 kV=0.208 kVA=1.948 Pmpp=1.948 model=1 conn=wye pf=1 irradiance=1 temperature=25 daily=PVShape Tdaily=TempShape
New PVSystem.PV_231 bus1=t_bus3111_l.1.2 phases=2 kV=0.208 kVA=5.000 Pmpp=5.000 model=1 conn=wye pf=1 irradiance=1 temperature=25 daily=PVShape Tdaily=TempShape
New PVSystem.PV_232 bus1=t_bus3111_l.1.2 phases=2 kV=0.208 kVA=2.416 Pmpp=2.416 model=1 conn=wye pf=1 irradiance=1 temperature=25 daily=PVShape Tdaily=TempShape
New PVSystem.PV_233 bus1=t_bus3112_l.1.2 phases=2 kV=0.208 kVA=5.000 Pmpp=5.000 model=1 conn=wye pf=1 irradiance=1 temperature=25 daily=PVShape Tdaily=TempShape
New PVSystem.PV_234 bus1=t_bus3112_l.1.2 phases=2 kV=0.208 kVA=1.945 Pmpp=1.945 model=1 conn=wye pf=1 irradiance=1 temperature=25 daily=PVShape Tdaily=TempShape
New PVSystem.PV_235 bus1=t_bus3114_l.1.2 phases=2 kV=0.208 kVA=4.995 Pmpp=4.995 model=1 conn=wye pf=1 irradiance=1 temperature=25 daily=PVShape Tdaily=TempShape
New PVSystem.PV_236 bus1=t_bus3115_l.1.2 phases=2 kV=0.208 kVA=5.000 Pmpp=5.000 model=1 conn=wye pf=1 irradiance=1 temperature=25 daily=PVShape Tdaily=TempShape
New PVSystem.PV_237 bus1=t_bus3115_l.1.2 phases=2 kV=0.208 kVA=1.305 Pmpp=1.305 model=1 conn=wye pf=1 irradiance=1 temperature=25 daily=PVShape Tdaily=TempShape
New PVSystem.PV_238 bus1=t_bus3116_l.1.2 phases=2 kV=0.208 kVA=4.372 Pmpp=4.372 model=1 conn=wye pf=1 irradiance=1 temperature=25 daily=PVShape Tdaily=TempShape
New PVSystem.PV_239 bus1=t_bus3117_l.1.2 phases=2 kV=0.208 kVA=2.980 Pmpp=2.980 model=1 conn=wye pf=1 irradiance=1 temperature=25 daily=PVShape Tdaily=TempShape
New PVSystem.PV_240 bus1=t_bus3120_l.1.2 phases=2 kV=0.208 kVA=3.969 Pmpp=3.969 model=1 conn=wye pf=1 irradiance=1 temperature=25 daily=PVShape Tdaily=TempShape
New PVSystem.PV_241 bus1=t_bus3121_l.1.2 phases=2 kV=0.208 kVA=3.869 Pmpp=3.869 model=1 conn=wye pf=1 irradiance=1 temperature=25 daily=PVShape Tdaily=TempShape
New PVSystem.PV_242 bus1=t_bus3122_l.1.2 phases=2 kV=0.208 kVA=3.404 Pmpp=3.404 model=1 conn=wye pf=1 irradiance=1 temperature=25 daily=PVShape Tdaily=TempShape
New PVSystem.PV_243 bus1=t_bus3123_l.1.2 phases=2 kV=0.208 kVA=4.670 Pmpp=4.670 model=1 conn=wye pf=1 irradiance=1 temperature=25 daily=PVShape Tdaily=TempShape
New PVSystem.PV_244 bus1=t_bus3124_l.1.2 phases=2 kV=0.208 kVA=3.130 Pmpp=3.130 model=1 conn=wye pf=1 irradiance=1 temperature=25 daily=PVShape Tdaily=TempShape
New PVSystem.PV_245 bus1=t_bus3125_l.1.2 phases=2 kV=0.208 kVA=0.820 Pmpp=0.820 model=1 conn=wye pf=1 irradiance=1 temperature=25 daily=PVShape Tdaily=TempShape
New PVSystem.PV_246 bus1=t_bus3126_l.1.2 phases=2 kV=0.208 kVA=4.417 Pmpp=4.417 model=1 conn=wye pf=1 irradiance=1 temperature=25 daily=PVShape Tdaily=TempShape
New PVSystem.PV_247 bus1=t_bus3127_l.1.2 phases=2 kV=0.208 kVA=5.000 Pmpp=5.000 model=1 conn=wye pf=1 irradiance=1 temperature=25 daily=PVShape Tdaily=TempShape
New PVSystem.PV_248 bus1=t_bus3127_l.1.2 phases=2 kV=0.208 kVA=0.814 Pmpp=0.814 model=1 conn=wye pf=1 irradiance=1 temperature=25 daily=PVShape Tdaily=TempShape
New PVSystem.PV_249 bus1=t_bus3128_l.1.2 phases=2 kV=0.208 kVA=2.323 Pmpp=2.323 model=1 conn=wye pf=1 irradiance=1 temperature=25 daily=PVShape Tdaily=TempShape
New PVSystem.PV_250 bus1=t_bus3129_l.1.2 phases=2 kV=0.208 kVA=3.380 Pmpp=3.380 model=1 conn=wye pf=1 irradiance=1 temperature=25 daily=PVShape Tdaily=TempShape
New PVSystem.PV_251 bus1=t_bus3130_l.1.2 phases=2 kV=0.208 kVA=2.937 Pmpp=2.937 model=1 conn=wye pf=1 irradiance=1 temperature=25 daily=PVShape Tdaily=TempShape
New PVSystem.PV_252 bus1=t_bus3131_l.1.2 phases=2 kV=0.208 kVA=5.000 Pmpp=5.000 model=1 conn=wye pf=1 irradiance=1 temperature=25 daily=PVShape Tdaily=TempShape
New PVSystem.PV_253 bus1=t_bus3132_l.1.2 phases=2 kV=0.208 kVA=5.000 Pmpp=5.000 model=1 conn=wye pf=1 irradiance=1 temperature=25 daily=PVShape Tdaily=TempShape
New PVSystem.PV_254 bus1=t_bus3132_l.1.2 phases=2 kV=0.208 kVA=1.213 Pmpp=1.213 model=1 conn=wye pf=1 irradiance=1 temperature=25 daily=PVShape Tdaily=TempShape
New PVSystem.PV_255 bus1=t_bus3134_l.1.2 phases=2 kV=0.208 kVA=5.000 Pmpp=5.000 model=1 conn=wye pf=1 irradiance=1 temperature=25 daily=PVShape Tdaily=TempShape
New PVSystem.PV_256 bus1=t_bus3134_l.1.2 phases=2 kV=0.208 kVA=2.301 Pmpp=2.301 model=1 conn=wye pf=1 irradiance=1 temperature=25 daily=PVShape Tdaily=TempShape
New PVSystem.PV_257 bus1=t_bus3135_l.1.2 phases=2 kV=0.208 kVA=4.638 Pmpp=4.638 model=1 conn=wye pf=1 irradiance=1 temperature=25 daily=PVShape Tdaily=TempShape
New PVSystem.PV_258 bus1=t_bus3136_l.1.2 phases=2 kV=0.208 kVA=5.000 Pmpp=5.000 model=1 conn=wye pf=1 irradiance=1 temperature=25 daily=PVShape Tdaily=TempShape
New PVSystem.PV_259 bus1=t_bus3136_l.1.2 phases=2 kV=0.208 kVA=3.031 Pmpp=3.031 model=1 conn=wye pf=1 irradiance=1 temperature=25 daily=PVShape Tdaily=TempShape
New PVSystem.PV_260 bus1=t_bus3137_l.1.2 phases=2 kV=0.208 kVA=5.000 Pmpp=5.000 model=1 conn=wye pf=1 irradiance=1 temperature=25 daily=PVShape Tdaily=TempShape
New PVSystem.PV_261 bus1=t_bus3137_l.1.2 phases=2 kV=0.208 kVA=3.494 Pmpp=3.494 model=1 conn=wye pf=1 irradiance=1 temperature=25 daily=PVShape Tdaily=TempShape
New PVSystem.PV_262 bus1=t_bus3138_l.1.2 phases=2 kV=0.208 kVA=5.000 Pmpp=5.000 model=1 conn=wye pf=1 irradiance=1 temperature=25 daily=PVShape Tdaily=TempShape
New PVSystem.PV_263 bus1=t_bus3138_l.1.2 phases=2 kV=0.208 kVA=2.573 Pmpp=2.573 model=1 conn=wye pf=1 irradiance=1 temperature=25 daily=PVShape Tdaily=TempShape
New PVSystem.PV_264 bus1=t_bus3141_l.1.2 phases=2 kV=0.208 kVA=4.343 Pmpp=4.343 model=1 conn=wye pf=1 irradiance=1 temperature=25 daily=PVShape Tdaily=TempShape
New PVSystem.PV_265 bus1=t_bus3142_l.1.2 phases=2 kV=0.208 kVA=3.906 Pmpp=3.906 model=1 conn=wye pf=1 irradiance=1 temperature=25 daily=PVShape Tdaily=TempShape
New PVSystem.PV_266 bus1=t_bus3143_l.1.2 phases=2 kV=0.208 kVA=5.000 Pmpp=5.000 model=1 conn=wye pf=1 irradiance=1 temperature=25 daily=PVShape Tdaily=TempShape
New PVSystem.PV_267 bus1=t_bus3143_l.1.2 phases=2 kV=0.208 kVA=0.708 Pmpp=0.708 model=1 conn=wye pf=1 irradiance=1 temperature=25 daily=PVShape Tdaily=TempShape
New PVSystem.PV_268 bus1=t_bus3144_l.1.2 phases=2 kV=0.208 kVA=1.204 Pmpp=1.204 model=1 conn=wye pf=1 irradiance=1 temperature=25 daily=PVShape Tdaily=TempShape
New PVSystem.PV_269 bus1=t_bus3145_l.1.2 phases=2 kV=0.208 kVA=3.752 Pmpp=3.752 model=1 conn=wye pf=1 irradiance=1 temperature=25 daily=PVShape Tdaily=TempShape
New PVSystem.PV_270 bus1=t_bus3146_l.1.2 phases=2 kV=0.208 kVA=3.126 Pmpp=3.126 model=1 conn=wye pf=1 irradiance=1 temperature=25 daily=PVShape Tdaily=TempShape
New PVSystem.PV_271 bus1=t_bus3147_l.1.2 phases=2 kV=0.208 kVA=4.632 Pmpp=4.632 model=1 conn=wye pf=1 irradiance=1 temperature=25 daily=PVShape Tdaily=TempShape
New PVSystem.PV_272 bus1=t_bus3148_l.1.2 phases=2 kV=0.208 kVA=5.000 Pmpp=5.000 model=1 conn=wye pf=1 irradiance=1 temperature=25 daily=PVShape Tdaily=TempShape
New PVSystem.PV_273 bus1=t_bus3148_l.1.2 phases=2 kV=0.208 kVA=1.124 Pmpp=1.124 model=1 conn=wye pf=1 irradiance=1 temperature=25 daily=PVShape Tdaily=TempShape
New PVSystem.PV_274 bus1=t_bus3149_l.1.2 phases=2 kV=0.208 kVA=3.556 Pmpp=3.556 model=1 conn=wye pf=1 irradiance=1 temperature=25 daily=PVShape Tdaily=TempShape
New PVSystem.PV_275 bus1=t_bus3150_l.1.2 phases=2 kV=0.208 kVA=2.187 Pmpp=2.187 model=1 conn=wye pf=1 irradiance=1 temperature=25 daily=PVShape Tdaily=TempShape
New PVSystem.PV_276 bus1=t_bus3151_l.1.2 phases=2 kV=0.208 kVA=2.039 Pmpp=2.039 model=1 conn=wye pf=1 irradiance=1 temperature=25 daily=PVShape Tdaily=TempShape
New PVSystem.PV_277 bus1=t_bus3152_l.1.2 phases=2 kV=0.208 kVA=2.312 Pmpp=2.312 model=1 conn=wye pf=1 irradiance=1 temperature=25 daily=PVShape Tdaily=TempShape
New PVSystem.PV_278 bus1=t_bus3153_l.1.2 phases=2 kV=0.208 kVA=5.000 Pmpp=5.000 model=1 conn=wye pf=1 irradiance=1 temperature=25 daily=PVShape Tdaily=TempShape
New PVSystem.PV_279 bus1=t_bus3153_l.1.2 phases=2 kV=0.208 kVA=0.522 Pmpp=0.522 model=1 conn=wye pf=1 irradiance=1 temperature=25 daily=PVShape Tdaily=TempShape
New PVSystem.PV_280 bus1=t_bus3154_l.1.2 phases=2 kV=0.208 kVA=2.930 Pmpp=2.930 model=1 conn=wye pf=1 irradiance=1 temperature=25 daily=PVShape Tdaily=TempShape
New PVSystem.PV_281 bus1=t_bus3155_l.1.2 phases=2 kV=0.208 kVA=2.991 Pmpp=2.991 model=1 conn=wye pf=1 irradiance=1 temperature=25 daily=PVShape Tdaily=TempShape
New PVSystem.PV_282 bus1=t_bus3157_l.1.2 phases=2 kV=0.208 kVA=5.000 Pmpp=5.000 model=1 conn=wye pf=1 irradiance=1 temperature=25 daily=PVShape Tdaily=TempShape
New PVSystem.PV_283 bus1=t_bus3157_l.1.2 phases=2 kV=0.208 kVA=0.950 Pmpp=0.950 model=1 conn=wye pf=1 irradiance=1 temperature=25 daily=PVShape Tdaily=TempShape
New PVSystem.PV_284 bus1=t_bus3158_l.1.2 phases=2 kV=0.208 kVA=5.000 Pmpp=5.000 model=1 conn=wye pf=1 irradiance=1 temperature=25 daily=PVShape Tdaily=TempShape
New PVSystem.PV_285 bus1=t_bus3158_l.1.2 phases=2 kV=0.208 kVA=1.366 Pmpp=1.366 model=1 conn=wye pf=1 irradiance=1 temperature=25 daily=PVShape Tdaily=TempShape
New PVSystem.PV_286 bus1=t_bus3159_l.1.2 phases=2 kV=0.208 kVA=5.000 Pmpp=5.000 model=1 conn=wye pf=1 irradiance=1 temperature=25 daily=PVShape Tdaily=TempShape
New PVSystem.PV_287 bus1=t_bus3159_l.1.2 phases=2 kV=0.208 kVA=0.869 Pmpp=0.869 model=1 conn=wye pf=1 irradiance=1 temperature=25 daily=PVShape Tdaily=TempShape
New PVSystem.PV_288 bus1=t_bus3160_l.1.2 phases=2 kV=0.208 kVA=3.087 Pmpp=3.087 model=1 conn=wye pf=1 irradiance=1 temperature=25 daily=PVShape Tdaily=TempShape
New PVSystem.PV_289 bus1=t_bus3161_l.1.2 phases=2 kV=0.208 kVA=2.562 Pmpp=2.562 model=1 conn=wye pf=1 irradiance=1 temperature=25 daily=PVShape Tdaily=TempShape
New PVSystem.PV_290 bus1=t_bus3162_l.1.2 phases=2 kV=0.208 kVA=2.635 Pmpp=2.635 model=1 conn=wye pf=1 irradiance=1 temperature=25 daily=PVShape Tdaily=TempShape